

=======================================================================
=======================================================================
                       SU2 - INITIAL SOLUTION



MPI - REPORT BINDINGS:

-------------------------------------------------------------------------
|    ___ _   _ ___                                                      |
|   / __| | | |_  )   Release 7.5.1 "Blackbird"                         |
|   \__ \ |_| |/ /                                                      |
|   |___/\___//___|   Suite (Computational Fluid Dynamics Code)         |
|                                                                       |
-------------------------------------------------------------------------
| SU2 Project Website: https://su2code.github.io                        |
|                                                                       |
| The SU2 Project is maintained by the SU2 Foundation                   |
| (http://su2foundation.org)                                            |
-------------------------------------------------------------------------
| Copyright 2012-2023, SU2 Contributors                                 |
|                                                                       |
| SU2 is free software; you can redistribute it and/or                  |
| modify it under the terms of the GNU Lesser General Public            |
| License as published by the Free Software Foundation; either          |
| version 2.1 of the License, or (at your option) any later version.    |
|                                                                       |
| SU2 is distributed in the hope that it will be useful,                |
| but WITHOUT ANY WARRANTY; without even the implied warranty of        |
| MERCHANTABILITY or FITNESS FOR A PARTICULAR PURPOSE. See the GNU      |
| Lesser General Public License for more details.                       |
|                                                                       |
| You should have received a copy of the GNU Lesser General Public      |
| License along with SU2. If not, see <http://www.gnu.org/licenses/>.   |
-------------------------------------------------------------------------

Parsing config file for zone 0

----------------- Physical Case Definition ( Zone 0 ) -------------------
Compressible Euler equations.
Mach number: 1e-09.
Angle of attack (AoA): 0 deg, and angle of sideslip (AoS): 0 deg.
No restart solution, use the values at infinity (freestream).
Non-Dimensional simulation (P=1.0, Rho=1.0, T=1.0 at the farfield).
The reference area is 1 m^2.
The semi-span will be computed using the max y(3D) value.
The reference length is 1 m.
Reference origin for moment evaluation is (0, 0, 0).
Surface(s) where the force coefficients are evaluated: 4.

Surface(s) plotted in the output file: 4.
Surface(s) to be analyzed in detail: 4.
Input mesh file name: admesh.INL.su2

--------------- Space Numerical Integration ( Zone 0 ) ------------------
Roe (with entropy fix = 1) solver for the flow inviscid terms.
Standard Roe without low-dissipation function.
First order integration in space.
Gradient for upwind reconstruction: unweighted Least-Squares.
Gradient for viscous and source terms: Green-Gauss.

--------------- Time Numerical Integration  ( Zone 0 ) ------------------
Local time stepping (steady state simulation).
Euler implicit method for the flow equations.
FGMRES is used for solving the linear system.
Using a ILU(0) preconditioning.
Convergence criteria of the linear solver: 1e-06.
Max number of linear iterations: 20.
CFL adaptation. Factor down: 0.5, factor up: 1.25,
                lower limit: 0.1, upper limit: 10,
                acceptable linear residual: 0.001.
Courant-Friedrichs-Lewy number:        1

------------------ Convergence Criteria  ( Zone 0 ) ---------------------
Maximum number of solver subiterations: 3000.
Begin convergence monitoring at iteration 10.
Residual minimum value: 1e-20.
Cauchy series min. value: 1e-10.
Number of Cauchy elements: 100.
Begin windowed time average at iteration 0.

-------------------- Output Information ( Zone 0 ) ----------------------
File writing frequency: 
+------------------------------------+
|                     File| Frequency|
+------------------------------------+
|                  RESTART|      1000|
|            RESTART_ASCII|      1000|
|                 PARAVIEW|      1000|
|            TECPLOT_ASCII|      1000|
|         SURFACE_PARAVIEW|      1000|
+------------------------------------+
Writing the convergence history file every 1 inner iterations.
Writing the screen convergence history every 50 inner iterations.
The tabular file format is CSV (.csv).
Convergence history file name: history_2nd.
Forces breakdown file name: forces_breakdown.dat.
Surface file name: surface_flow.
Volume file name: flow.
Restart file name: solution.dat.

------------- Config File Boundary Information ( Zone 0 ) ---------------
+-----------------------------------------------------------------------+
|                        Marker Type|                        Marker Name|
+-----------------------------------------------------------------------+
|                         Euler wall|                                  2|
|                                   |                                  3|
+-----------------------------------------------------------------------+
|                          Far-field|                                  4|
+-----------------------------------------------------------------------+
|                     Symmetry plane|                                  6|
+-----------------------------------------------------------------------+
|                   Riemann boundary|                                  1|
|                                   |                                  5|
+-----------------------------------------------------------------------+

-------------------- Output Preprocessing ( Zone 0 ) --------------------

WARNING: SURFACE_PRESSURE_DROP can only be computed for at least 2 surfaces (outlet, inlet, ...)

Screen output fields: INNER_ITER, RMS_DENSITY, NONPHYSICAL_POINTS
History output group(s): ITER, RMS_RES
Ignoring Convergence Field(s): RESIDUAL 
Warning: No (valid) fields chosen for convergence monitoring. Convergence monitoring inactive.
Warning: No (valid) fields chosen for time convergence monitoring. Time convergence monitoring inactive.
Volume output fields: COORDINATES, SOLUTION, PRIMITIVE

------------------- Geometry Preprocessing ( Zone 0 ) -------------------
Two dimensional problem.
3347 grid points before partitioning.
6337 volume elements before partitioning.
6 surface markers.
12 boundary elements in index 0 (Marker = 1).
28 boundary elements in index 1 (Marker = 2).
53 boundary elements in index 2 (Marker = 3).
90 boundary elements in index 3 (Marker = 4).
17 boundary elements in index 4 (Marker = 5).
102 boundary elements in index 5 (Marker = 6).
Executing the partitioning functions.
Building the graph adjacency structure.
Calling ParMETIS... graph partitioning complete (358 edge cuts).
Distributing ParMETIS coloring.
Rebalancing vertices.
Rebalancing volume element connectivity.
Rebalancing markers and surface elements.
3717 vertices including ghost points. 
6691 interior elements including halo cells. 
6636 triangles.
55 quadrilaterals.
Establishing MPI communication patterns.
Setting point connectivity.
Renumbering points (Reverse Cuthill McKee Ordering).
Recomputing point connectivity.
Setting element connectivity.
Checking the numerical grid orientation.
All volume elements are correctly orientend.
There has been a re-orientation of 313 LINE surface elements.
Identifying edges and vertices.
Setting the control volume structure.
Area of the computational grid: 1148.74.
Searching for the closest normal neighbors to the surfaces.
Storing a mapping from global to local point index.
Compute the surface curvature.
Max K: 13.0183. Mean K: 0.18162. Standard deviation K: 1.14559.
Checking for periodicity.
Computing mesh quality statistics for the dual control volumes.
+--------------------------------------------------------------+
|           Mesh Quality Metric|        Minimum|        Maximum|
+--------------------------------------------------------------+
|    Orthogonality Angle (deg.)|        63.7505|             90|
|     CV Face Area Aspect Ratio|        1.00688|        9.57495|
|           CV Sub-Volume Ratio|              1|        7.26457|
+--------------------------------------------------------------+
Finding max control volume width.
Communicating number of neighbors.
Wetted area = 0 m^2.
Area projection in the x-plane = 0 m, y-plane = 0 m.
Max. coordinate in the x-direction = -1e+10 m, y-direction = -1e+10 m.
Min. coordinate in the x-direction = 1e+10 m, y-direction = 1e+10 m.
Checking if Euler & Symmetry markers are straight/plane:
Boundary marker 2 is NOT a single straight.
Boundary marker 3 is a single straight.
Boundary marker 6 is a single straight.
Computing wall distances.

-------------------- Solver Preprocessing ( Zone 0 ) --------------------
Inviscid flow: Computing density based on free-stream
temperature and pressure using the ideal gas law.
Force coefficients computed using free-stream values.

-- Models:
+------------------------------------------------------------------------------+
|          Viscosity Model|        Conductivity Model|              Fluid Model|
+------------------------------------------------------------------------------+
|                        -|                         -|                IDEAL_GAS|
+------------------------------------------------------------------------------+
-- Fluid properties:
+------------------------------------------------------------------------------+
|                  Name|    Dim. value|    Ref. value|      Unit|Non-dim. value|
+------------------------------------------------------------------------------+
|          Gas Constant|           297|           297|  N.m/kg.K|             1|
|      Spec. Heat Ratio|             -|             -|         -|           1.4|
+------------------------------------------------------------------------------+
-- Initial and free-stream conditions:
+------------------------------------------------------------------------------+
|                  Name|    Dim. value|    Ref. value|      Unit|Non-dim. value|
+------------------------------------------------------------------------------+
|       Static Pressure|        100430|        100430|        Pa|             1|
|               Density|       1.12716|       1.12716|    kg/m^3|             1|
|           Temperature|           300|           300|         K|             1|
|          Total Energy|        222750|         89100|   m^2/s^2|           2.5|
|            Velocity-X|   3.53186e-07|       298.496|       m/s|   1.18322e-09|
|            Velocity-Y|             0|       298.496|       m/s|             0|
|    Velocity Magnitude|   3.53186e-07|       298.496|       m/s|   1.18322e-09|
+------------------------------------------------------------------------------+
|           Mach Number|             -|             -|         -|         1e-09|
+------------------------------------------------------------------------------+
Initialize Jacobian structure (Euler). MG level: 0.

------------------- Numerics Preprocessing ( Zone 0 ) -------------------

----------------- Integration Preprocessing ( Zone 0 ) ------------------

------------------- Iteration Preprocessing ( Zone 0 ) ------------------
Euler/Navier-Stokes/RANS fluid iteration.

------------------------------ Begin Solver -----------------------------

Simulation Run using the Single-zone Driver
WARNING: SU2 was not compiled for an AVX-capable architecture. Performance could be better,
         see https://su2code.github.io/docs_v7/Build-SU2-Linux-MacOS/#compiler-optimizations
+--------------------------------------+
|  Inner_Iter|    rms[Rho]|Nonphysical_|
+--------------------------------------+
|           0|   -1.062011|           0|
|          50|   -2.466498|           2|
|         100|   -3.229724|           2|
|         150|   -3.669720|           2|
|         200|   -3.850965|           2|
|         250|   -3.854145|           2|
|         300|   -3.854464|           2|
|         350|   -3.854522|           2|
|         400|   -3.854535|           2|
|         450|   -3.854539|           2|
|         500|   -3.854540|           2|
|         550|   -3.854540|           2|
|         600|   -3.854540|           2|
|         650|   -3.854540|           2|
|         700|   -3.854540|           2|
|         750|   -3.854540|           2|
|         800|   -3.854540|           2|
|         850|   -3.854540|           2|
|         900|   -3.854540|           2|
|         950|   -3.854540|           2|
|        1000|   -3.854540|           2|
+-----------------------------------------------------------------------+
|        File Writing Summary       |              Filename             |
+-----------------------------------------------------------------------+
|SU2 binary restart                 |solution.dat                       |
|SU2 ASCII restart                  |solution.csv                       |
|Paraview                           |flow.vtu                           |
|Tecplot ASCII                      |flow.dat                           |
|Paraview surface                   |surface_flow.vtu                   |
+-----------------------------------------------------------------------+
+--------------------------------------+
|  Inner_Iter|    rms[Rho]|Nonphysical_|
+--------------------------------------+
|        1050|   -3.854540|           2|
|        1100|   -3.854540|           2|
|        1150|   -3.954956|           2|
|        1200|   -3.830507|           2|
|        1250|   -3.839194|           2|
|        1300|   -3.839288|           2|
|        1350|   -3.839270|           2|
|        1400|   -3.839269|           2|
|        1450|   -3.839269|           2|
|        1500|   -3.839269|           2|
|        1550|   -3.839269|           2|
|        1600|   -3.839269|           2|
|        1650|   -3.839269|           2|
|        1700|   -3.839269|           2|
|        1750|   -3.839269|           2|
|        1800|   -3.839269|           2|
|        1850|   -3.839269|           2|
|        1900|   -3.839269|           2|
|        1950|   -3.839269|           2|
|        2000|   -3.955677|           2|
+-----------------------------------------------------------------------+
|        File Writing Summary       |              Filename             |
+-----------------------------------------------------------------------+
|SU2 binary restart                 |solution.dat                       |
|SU2 ASCII restart                  |solution.csv                       |
|Paraview                           |flow.vtu                           |
|Tecplot ASCII                      |flow.dat                           |
|Paraview surface                   |surface_flow.vtu                   |
+-----------------------------------------------------------------------+
+--------------------------------------+
|  Inner_Iter|    rms[Rho]|Nonphysical_|
+--------------------------------------+
|        2050|   -3.825028|           2|
|        2100|   -3.843378|           2|
|        2150|   -3.842872|           2|
|        2200|   -3.842855|           2|
|        2250|   -3.842857|           2|
|        2300|   -3.842857|           2|
|        2350|   -3.842857|           2|
|        2400|   -3.842857|           2|
|        2450|   -3.842857|           2|
|        2500|   -3.842857|           2|
|        2550|   -3.842857|           2|
|        2600|   -3.842857|           2|
|        2650|   -3.842857|           2|
|        2700|   -3.842857|           2|
|        2750|   -3.842857|           2|
|        2800|   -3.939637|           2|
|        2850|   -3.963019|           2|
|        2900|   -3.837678|           2|
|        2950|   -3.841252|           2|
|        2999|   -3.841408|           2|

----------------------------- Solver Exit -------------------------------

Maximum number of iterations reached (ITER = 3000) before convergence.
+-----------------------------------------------------------------------+
|      Convergence Field     |     Value    |   Criterion  |  Converged |
+-----------------------------------------------------------------------+
+-----------------------------------------------------------------------+
-------------------------------------------------------------------------
+-----------------------------------------------------------------------+
|        File Writing Summary       |              Filename             |
+-----------------------------------------------------------------------+
|SU2 binary restart                 |solution.dat                       |
|SU2 ASCII restart                  |solution.csv                       |
|Paraview                           |flow.vtu                           |
|Tecplot ASCII                      |flow.dat                           |
|Paraview surface                   |surface_flow.vtu                   |
+-----------------------------------------------------------------------+
Warning: there are 2 non-physical points in the solution.

------------------------- Solver Postprocessing -------------------------
Deleted CNumerics container.
Deleted CIntegration container.
Deleted CSolver container.
Deleted CIteration container.
Deleted CInterface container.
Deleted CGeometry container.
Deleted CFreeFormDefBox class.
Deleted CSurfaceMovement class.
Deleted CVolumetricMovement class.
Deleted CConfig container.
Deleted nInst container.
Deleted COutput class.
-------------------------------------------------------------------------

------------------------- Exit Success (SU2_CFD) ------------------------



=======================================================================
=======================================================================
                       PREPROCESSING - LEVEL 1
 
  -------------------------------------------------------------------
    NODE-PAIR CODE   -   PREPROCESSING PHASE
  -------------------------------------------------------------------
    Department of Aerospace Engineering - Politecnico di Milano
    authors: Alberto Guardone, Marco Fossati
 
    Warning: Check the status of file CORNERS.grid_name
 
 
    Domain nodes:         3347
    Boundary nodes:          604
    Domain elements:         6337
    Boundary elements:          302
 
    Generating node-pairs...
    I have found         9789  node-pairs in the domain
    I have found          302  node-pairs in the boundary
 
    Generating metric quantities...
    Domain finite element metrics...
    Domain finite volumes metrics...
    Boundary metrics...
 
    Checking metric consistency...
      FEM maximum eta residual on DOMAIN points --->  6.1553313169348324E-30
      - on domain node           88
      - of coordinates   0.100000000000000        8.85290749336226     
      FEM maximum eta residual on BOUNDARY points --->  1.4127434214646825E-29
      - on boundary node          164    (domain            43 )
      - of coordinates   0.000000000000000E+000   11.6353110119263     
 
      Domain area (cell) =   1089.81007505642     
      Domain area (mass,mass_ii) =   1089.81007505642     
      Boundary closure (xi) =  5.049465466374718E-014
      Boundary closure (chi) =  4.845335758755511E-015
 
      FVM maximum eta residual on DOMAIN points --->  2.3016078936237858E-32
      - on domain node         1523
      - of coordinates  -9.378070040651795E-003   2.41408986615917     
      FVM maximum eta residual on BOUNDARY points --->  5.8438751863221923E-28
      - on boundary node          186    (domain            54 )
      - of coordinates   0.000000000000000E+000   16.2500000000000     
 
    done
 
    Generating rotation matrices...
    done
 
    Saving...
    node-pairs...
    metric quantities...
    done
 
    Elapsed time   0.2342E+00 s
 


=======================================================================
=======================================================================
                     MESH ADAPTATION - LEVEL 1
 
  -------------------------------------------------------------------
    DARWIN
  -------------------------------------------------------------------
    CFD Laboratory - McGill University
    2009-2012 - Marco Fossati
    Department of Aerospace Engineering - Politecnico di Milano
    2003-2009 - Alberto Guardone, Marco Fossati
 
    Reading grid 0 ...
    Reading SU2 solution
    - equations:  Euler
    - thermodynamics:  not used
 
    Adapt grid from level 0 to level 1
    Averaging error...
    Quality enforcement...
    - edges marked for quality enforcement:        7
 
    Grid 1 nodes     4716 element     9005
 
    Postprocessing
    - errors.INL.plt
    - admesh.INL.plt
    - admesh.INL.su2
 


=======================================================================
=======================================================================
                            SU2 - LEVEL 1



MPI - REPORT BINDINGS:

-------------------------------------------------------------------------
|    ___ _   _ ___                                                      |
|   / __| | | |_  )   Release 7.5.1 "Blackbird"                         |
|   \__ \ |_| |/ /                                                      |
|   |___/\___//___|   Suite (Computational Fluid Dynamics Code)         |
|                                                                       |
-------------------------------------------------------------------------
| SU2 Project Website: https://su2code.github.io                        |
|                                                                       |
| The SU2 Project is maintained by the SU2 Foundation                   |
| (http://su2foundation.org)                                            |
-------------------------------------------------------------------------
| Copyright 2012-2023, SU2 Contributors                                 |
|                                                                       |
| SU2 is free software; you can redistribute it and/or                  |
| modify it under the terms of the GNU Lesser General Public            |
| License as published by the Free Software Foundation; either          |
| version 2.1 of the License, or (at your option) any later version.    |
|                                                                       |
| SU2 is distributed in the hope that it will be useful,                |
| but WITHOUT ANY WARRANTY; without even the implied warranty of        |
| MERCHANTABILITY or FITNESS FOR A PARTICULAR PURPOSE. See the GNU      |
| Lesser General Public License for more details.                       |
|                                                                       |
| You should have received a copy of the GNU Lesser General Public      |
| License along with SU2. If not, see <http://www.gnu.org/licenses/>.   |
-------------------------------------------------------------------------

Parsing config file for zone 0

----------------- Physical Case Definition ( Zone 0 ) -------------------
Compressible Euler equations.
Mach number: 1e-09.
Angle of attack (AoA): 0 deg, and angle of sideslip (AoS): 0 deg.
Reading and writing binary SU2 native restart files.
Read flow solution from: solution_interpolated.dat.
Non-Dimensional simulation (P=1.0, Rho=1.0, T=1.0 at the farfield).
The reference area is 1 m^2.
The semi-span will be computed using the max y(3D) value.
The reference length is 1 m.
Reference origin for moment evaluation is (0, 0, 0).
Surface(s) where the force coefficients are evaluated: 4.

Surface(s) plotted in the output file: 4.
Surface(s) to be analyzed in detail: 4.
Input mesh file name: admesh.INL.su2

--------------- Space Numerical Integration ( Zone 0 ) ------------------
Roe (with entropy fix = 1) solver for the flow inviscid terms.
Standard Roe without low-dissipation function.
Second order integration in space, with slope limiter.
Venkatakrishnan slope-limiting method, with constant: 0.0001.
The reference element size is: 1. 
Gradient for upwind reconstruction: unweighted Least-Squares.
Gradient for viscous and source terms: Green-Gauss.

--------------- Time Numerical Integration  ( Zone 0 ) ------------------
Local time stepping (steady state simulation).
Euler implicit method for the flow equations.
FGMRES is used for solving the linear system.
Using a ILU(0) preconditioning.
Convergence criteria of the linear solver: 1e-06.
Max number of linear iterations: 20.
CFL adaptation. Factor down: 0.5, factor up: 1.25,
                lower limit: 0.1, upper limit: 10,
                acceptable linear residual: 0.001.
Courant-Friedrichs-Lewy number:        1

------------------ Convergence Criteria  ( Zone 0 ) ---------------------
Maximum number of solver subiterations: 3000.
Begin convergence monitoring at iteration 10.
Residual minimum value: 1e-20.
Cauchy series min. value: 1e-10.
Number of Cauchy elements: 100.
Begin windowed time average at iteration 0.

-------------------- Output Information ( Zone 0 ) ----------------------
File writing frequency: 
+------------------------------------+
|                     File| Frequency|
+------------------------------------+
|                  RESTART|      1000|
|            RESTART_ASCII|      1000|
|                 PARAVIEW|      1000|
|            TECPLOT_ASCII|      1000|
|         SURFACE_PARAVIEW|      1000|
+------------------------------------+
Writing the convergence history file every 1 inner iterations.
Writing the screen convergence history every 50 inner iterations.
The tabular file format is CSV (.csv).
Convergence history file name: history_2nd.
Forces breakdown file name: forces_breakdown.dat.
Surface file name: surface_flow.
Volume file name: flow.
Restart file name: solution.dat.

------------- Config File Boundary Information ( Zone 0 ) ---------------
+-----------------------------------------------------------------------+
|                        Marker Type|                        Marker Name|
+-----------------------------------------------------------------------+
|                         Euler wall|                                  2|
|                                   |                                  3|
+-----------------------------------------------------------------------+
|                          Far-field|                                  4|
+-----------------------------------------------------------------------+
|                     Symmetry plane|                                  6|
+-----------------------------------------------------------------------+
|                   Riemann boundary|                                  1|
|                                   |                                  5|
+-----------------------------------------------------------------------+

-------------------- Output Preprocessing ( Zone 0 ) --------------------

WARNING: SURFACE_PRESSURE_DROP can only be computed for at least 2 surfaces (outlet, inlet, ...)

Screen output fields: INNER_ITER, RMS_DENSITY, NONPHYSICAL_POINTS
History output group(s): ITER, RMS_RES
Ignoring Convergence Field(s): RESIDUAL 
Warning: No (valid) fields chosen for convergence monitoring. Convergence monitoring inactive.
Warning: No (valid) fields chosen for time convergence monitoring. Time convergence monitoring inactive.
Volume output fields: COORDINATES, SOLUTION, PRIMITIVE

------------------- Geometry Preprocessing ( Zone 0 ) -------------------
Two dimensional problem.
4716 grid points before partitioning.
9005 volume elements before partitioning.
6 surface markers.
12 boundary elements in index 0 (Marker = 1).
41 boundary elements in index 1 (Marker = 2).
57 boundary elements in index 2 (Marker = 3).
90 boundary elements in index 3 (Marker = 4).
17 boundary elements in index 4 (Marker = 5).
140 boundary elements in index 5 (Marker = 6).
Executing the partitioning functions.
Building the graph adjacency structure.
Calling ParMETIS... graph partitioning complete (358 edge cuts).
Distributing ParMETIS coloring.
Rebalancing vertices.
Rebalancing volume element connectivity.
Rebalancing markers and surface elements.
5087 vertices including ghost points. 
9359 interior elements including halo cells. 
9288 triangles.
71 quadrilaterals.
Establishing MPI communication patterns.
Setting point connectivity.
Renumbering points (Reverse Cuthill McKee Ordering).
Recomputing point connectivity.
Setting element connectivity.
Checking the numerical grid orientation.
All volume elements are correctly orientend.
There has been a re-orientation of 368 LINE surface elements.
Identifying edges and vertices.
Setting the control volume structure.
Area of the computational grid: 1133.87.
Searching for the closest normal neighbors to the surfaces.
Storing a mapping from global to local point index.
Compute the surface curvature.
Max K: 26.0332. Mean K: 0.23592. Standard deviation K: 1.97862.
Checking for periodicity.
Computing mesh quality statistics for the dual control volumes.
+--------------------------------------------------------------+
|           Mesh Quality Metric|        Minimum|        Maximum|
+--------------------------------------------------------------+
|    Orthogonality Angle (deg.)|         50.373|             90|
|     CV Face Area Aspect Ratio|        1.00018|        9.57495|
|           CV Sub-Volume Ratio|              1|        7.28461|
+--------------------------------------------------------------+
Finding max control volume width.
Communicating number of neighbors.
Wetted area = 0 m^2.
Area projection in the x-plane = 0 m, y-plane = 0 m.
Max. coordinate in the x-direction = -1e+10 m, y-direction = -1e+10 m.
Min. coordinate in the x-direction = 1e+10 m, y-direction = 1e+10 m.
Checking if Euler & Symmetry markers are straight/plane:
Boundary marker 2 is NOT a single straight.
Boundary marker 3 is a single straight.
Boundary marker 6 is a single straight.
Computing wall distances.

-------------------- Solver Preprocessing ( Zone 0 ) --------------------
Inviscid flow: Computing density based on free-stream
temperature and pressure using the ideal gas law.
Force coefficients computed using free-stream values.

-- Models:
+------------------------------------------------------------------------------+
|          Viscosity Model|        Conductivity Model|              Fluid Model|
+------------------------------------------------------------------------------+
|                        -|                         -|                IDEAL_GAS|
+------------------------------------------------------------------------------+
-- Fluid properties:
+------------------------------------------------------------------------------+
|                  Name|    Dim. value|    Ref. value|      Unit|Non-dim. value|
+------------------------------------------------------------------------------+
|          Gas Constant|           297|           297|  N.m/kg.K|             1|
|      Spec. Heat Ratio|             -|             -|         -|           1.4|
+------------------------------------------------------------------------------+
-- Initial and free-stream conditions:
+------------------------------------------------------------------------------+
|                  Name|    Dim. value|    Ref. value|      Unit|Non-dim. value|
+------------------------------------------------------------------------------+
|       Static Pressure|        100430|        100430|        Pa|             1|
|               Density|       1.12716|       1.12716|    kg/m^3|             1|
|           Temperature|           300|           300|         K|             1|
|          Total Energy|        222750|         89100|   m^2/s^2|           2.5|
|            Velocity-X|   3.53186e-07|       298.496|       m/s|   1.18322e-09|
|            Velocity-Y|             0|       298.496|       m/s|             0|
|    Velocity Magnitude|   3.53186e-07|       298.496|       m/s|   1.18322e-09|
+------------------------------------------------------------------------------+
|           Mach Number|             -|             -|         -|         1e-09|
+------------------------------------------------------------------------------+
Initialize Jacobian structure (Euler). MG level: 0.

The number of points in the restart file (3347) does not match the mesh (4716).
A recursive nearest neighbor interpolation will be performed.
Number of recursions: 1.
Elapsed time: 0.0025803s.


------------------- Numerics Preprocessing ( Zone 0 ) -------------------

----------------- Integration Preprocessing ( Zone 0 ) ------------------

------------------- Iteration Preprocessing ( Zone 0 ) ------------------
Euler/Navier-Stokes/RANS fluid iteration.

------------------------------ Begin Solver -----------------------------

Simulation Run using the Single-zone Driver
WARNING: SU2 was not compiled for an AVX-capable architecture. Performance could be better,
         see https://su2code.github.io/docs_v7/Build-SU2-Linux-MacOS/#compiler-optimizations
+--------------------------------------+
|  Inner_Iter|    rms[Rho]|Nonphysical_|
+--------------------------------------+
|           0|   -1.837765|           3|
|          50|   -2.509559|           1|
|         100|   -2.606384|           1|
|         150|   -3.032579|           1|
|         200|   -3.076324|           1|
|         250|   -3.210329|           1|
|         300|   -3.202914|           1|
|         350|   -3.241388|           1|
|         400|   -3.240936|           1|
|         450|   -3.240940|           1|
|         500|   -3.239731|           1|
|         550|   -3.237019|           1|
|         600|   -3.237241|           1|
|         650|   -3.235864|           1|
|         700|   -3.233028|           1|
|         750|   -3.231970|           1|
|         800|   -3.229953|           1|
|         850|   -3.229365|           1|
|         900|   -3.229291|           1|
|         950|   -3.229177|           1|
|        1000|   -3.229155|           1|
+-----------------------------------------------------------------------+
|        File Writing Summary       |              Filename             |
+-----------------------------------------------------------------------+
|SU2 binary restart                 |solution.dat                       |
|SU2 ASCII restart                  |solution.csv                       |
|Paraview                           |flow.vtu                           |
|Tecplot ASCII                      |flow.dat                           |
|Paraview surface                   |surface_flow.vtu                   |
+-----------------------------------------------------------------------+
+--------------------------------------+
|  Inner_Iter|    rms[Rho]|Nonphysical_|
+--------------------------------------+
|        1050|   -3.229282|           1|
|        1100|   -3.229498|           1|
|        1150|   -3.229776|           1|
|        1200|   -3.230046|           1|
|        1250|   -3.230347|           1|
|        1300|   -3.230547|           1|
|        1350|   -3.230829|           1|
|        1400|   -3.230919|           1|
|        1450|   -3.231105|           1|
|        1500|   -3.231173|           1|
|        1550|   -3.231302|           1|
|        1600|   -3.231284|           1|
|        1650|   -3.231227|           1|
|        1700|   -3.230946|           1|
|        1750|   -3.230619|           1|
|        1800|   -3.230083|           1|
|        1850|   -3.229561|           1|
|        1900|   -3.228885|           1|
|        1950|   -3.228241|           1|
|        2000|   -3.227523|           1|
+-----------------------------------------------------------------------+
|        File Writing Summary       |              Filename             |
+-----------------------------------------------------------------------+
|SU2 binary restart                 |solution.dat                       |
|SU2 ASCII restart                  |solution.csv                       |
|Paraview                           |flow.vtu                           |
|Tecplot ASCII                      |flow.dat                           |
|Paraview surface                   |surface_flow.vtu                   |
+-----------------------------------------------------------------------+
+--------------------------------------+
|  Inner_Iter|    rms[Rho]|Nonphysical_|
+--------------------------------------+
|        2050|   -3.226923|           1|
|        2100|   -3.226266|           1|
|        2150|   -3.225727|           1|
|        2200|   -3.225210|           1|
|        2250|   -3.224898|           1|
|        2300|   -3.224647|           1|
|        2350|   -3.224573|           1|
|        2400|   -3.224582|           1|
|        2450|   -3.224753|           1|
|        2500|   -3.225012|           1|
|        2550|   -3.225434|           1|
|        2600|   -3.225923|           1|
|        2650|   -3.226585|           1|
|        2700|   -3.227271|           1|
|        2750|   -3.227968|           1|
|        2800|   -3.228529|           1|
|        2850|   -3.229002|           1|
|        2900|   -3.229170|           1|
|        2950|   -3.229166|           1|
|        2999|   -3.228963|           1|

----------------------------- Solver Exit -------------------------------

Maximum number of iterations reached (ITER = 3000) before convergence.
+-----------------------------------------------------------------------+
|      Convergence Field     |     Value    |   Criterion  |  Converged |
+-----------------------------------------------------------------------+
+-----------------------------------------------------------------------+
-------------------------------------------------------------------------
+-----------------------------------------------------------------------+
|        File Writing Summary       |              Filename             |
+-----------------------------------------------------------------------+
|SU2 binary restart                 |solution.dat                       |
|SU2 ASCII restart                  |solution.csv                       |
|Paraview                           |flow.vtu                           |
|Tecplot ASCII                      |flow.dat                           |
|Paraview surface                   |surface_flow.vtu                   |
+-----------------------------------------------------------------------+
Warning: there are 1 non-physical points in the solution.

------------------------- Solver Postprocessing -------------------------
Deleted CNumerics container.
Deleted CIntegration container.
Deleted CSolver container.
Deleted CIteration container.
Deleted CInterface container.
Deleted CGeometry container.
Deleted CFreeFormDefBox class.
Deleted CSurfaceMovement class.
Deleted CVolumetricMovement class.
Deleted CConfig container.
Deleted nInst container.
Deleted COutput class.
-------------------------------------------------------------------------

------------------------- Exit Success (SU2_CFD) ------------------------



=======================================================================
=======================================================================
                       PREPROCESSING - LEVEL 2
 
  -------------------------------------------------------------------
    NODE-PAIR CODE   -   PREPROCESSING PHASE
  -------------------------------------------------------------------
    Department of Aerospace Engineering - Politecnico di Milano
    authors: Alberto Guardone, Marco Fossati
 
    Warning: Check the status of file CORNERS.grid_name
 
 
    Domain nodes:         4716
    Boundary nodes:          714
    Domain elements:         9005
    Boundary elements:          357
 
    Generating node-pairs...
    I have found        13856  node-pairs in the domain
    I have found          357  node-pairs in the boundary
 
    Generating metric quantities...
    Domain finite element metrics...
    Domain finite volumes metrics...
    Boundary metrics...
 
    Checking metric consistency...
      FEM maximum eta residual on DOMAIN points --->  4.8470864129046099E-30
      - on domain node           58
      - of coordinates   0.100000000000000        3.56048430000000     
      FEM maximum eta residual on BOUNDARY points --->  1.0716306592933286E-29
      - on boundary node          186    (domain            54 )
      - of coordinates   0.000000000000000E+000   16.2500000000000     
 
      Domain area (cell) =   1089.80009281647     
      Domain area (mass,mass_ii) =   1089.80009281647     
      Boundary closure (xi) =  2.140285149428728E-014
      Boundary closure (chi) =  6.029096264811558E-015
 
      FVM maximum eta residual on DOMAIN points --->  1.2004115404003066E-31
      - on domain node         1752
      - of coordinates  -1.190925520000000E-002   1.71266943000000     
      FVM maximum eta residual on BOUNDARY points --->  2.5972776215772036E-28
      - on boundary node          186    (domain            54 )
      - of coordinates   0.000000000000000E+000   16.2500000000000     
 
    done
 
    Generating rotation matrices...
    done
 
    Saving...
    node-pairs...
    metric quantities...
    done
 
    Elapsed time   0.3810E+00 s
 


=======================================================================
=======================================================================
                     MESH ADAPTATION - LEVEL 2
 
  -------------------------------------------------------------------
    DARWIN
  -------------------------------------------------------------------
    CFD Laboratory - McGill University
    2009-2012 - Marco Fossati
    Department of Aerospace Engineering - Politecnico di Milano
    2003-2009 - Alberto Guardone, Marco Fossati
 
    Reading grid 1 ...
    Reading SU2 solution
    - equations:  Euler
    - thermodynamics:  not used
 
    Adapt grid from level 1 to level 2
    Averaging error...
    Quality enforcement...
    - edges marked for quality enforcement:       51
 
    Grid 1 nodes     4716 element     9005
    Grid 2 nodes     5186 element     9941
 
    Postprocessing
    - errors.INL.plt
    - admesh.INL.plt
    - admesh.INL.su2
 


=======================================================================
=======================================================================
                            SU2 - LEVEL 2



MPI - REPORT BINDINGS:

-------------------------------------------------------------------------
|    ___ _   _ ___                                                      |
|   / __| | | |_  )   Release 7.5.1 "Blackbird"                         |
|   \__ \ |_| |/ /                                                      |
|   |___/\___//___|   Suite (Computational Fluid Dynamics Code)         |
|                                                                       |
-------------------------------------------------------------------------
| SU2 Project Website: https://su2code.github.io                        |
|                                                                       |
| The SU2 Project is maintained by the SU2 Foundation                   |
| (http://su2foundation.org)                                            |
-------------------------------------------------------------------------
| Copyright 2012-2023, SU2 Contributors                                 |
|                                                                       |
| SU2 is free software; you can redistribute it and/or                  |
| modify it under the terms of the GNU Lesser General Public            |
| License as published by the Free Software Foundation; either          |
| version 2.1 of the License, or (at your option) any later version.    |
|                                                                       |
| SU2 is distributed in the hope that it will be useful,                |
| but WITHOUT ANY WARRANTY; without even the implied warranty of        |
| MERCHANTABILITY or FITNESS FOR A PARTICULAR PURPOSE. See the GNU      |
| Lesser General Public License for more details.                       |
|                                                                       |
| You should have received a copy of the GNU Lesser General Public      |
| License along with SU2. If not, see <http://www.gnu.org/licenses/>.   |
-------------------------------------------------------------------------

Parsing config file for zone 0

----------------- Physical Case Definition ( Zone 0 ) -------------------
Compressible Euler equations.
Mach number: 1e-09.
Angle of attack (AoA): 0 deg, and angle of sideslip (AoS): 0 deg.
Reading and writing binary SU2 native restart files.
Read flow solution from: solution_interpolated.dat.
Non-Dimensional simulation (P=1.0, Rho=1.0, T=1.0 at the farfield).
The reference area is 1 m^2.
The semi-span will be computed using the max y(3D) value.
The reference length is 1 m.
Reference origin for moment evaluation is (0, 0, 0).
Surface(s) where the force coefficients are evaluated: 4.

Surface(s) plotted in the output file: 4.
Surface(s) to be analyzed in detail: 4.
Input mesh file name: admesh.INL.su2

--------------- Space Numerical Integration ( Zone 0 ) ------------------
Roe (with entropy fix = 1) solver for the flow inviscid terms.
Standard Roe without low-dissipation function.
Second order integration in space, with slope limiter.
Venkatakrishnan slope-limiting method, with constant: 0.0001.
The reference element size is: 1. 
Gradient for upwind reconstruction: unweighted Least-Squares.
Gradient for viscous and source terms: Green-Gauss.

--------------- Time Numerical Integration  ( Zone 0 ) ------------------
Local time stepping (steady state simulation).
Euler implicit method for the flow equations.
FGMRES is used for solving the linear system.
Using a ILU(0) preconditioning.
Convergence criteria of the linear solver: 1e-06.
Max number of linear iterations: 20.
CFL adaptation. Factor down: 0.5, factor up: 1.25,
                lower limit: 0.1, upper limit: 10,
                acceptable linear residual: 0.001.
Courant-Friedrichs-Lewy number:        1

------------------ Convergence Criteria  ( Zone 0 ) ---------------------
Maximum number of solver subiterations: 3000.
Begin convergence monitoring at iteration 10.
Residual minimum value: 1e-20.
Cauchy series min. value: 1e-10.
Number of Cauchy elements: 100.
Begin windowed time average at iteration 0.

-------------------- Output Information ( Zone 0 ) ----------------------
File writing frequency: 
+------------------------------------+
|                     File| Frequency|
+------------------------------------+
|                  RESTART|      1000|
|            RESTART_ASCII|      1000|
|                 PARAVIEW|      1000|
|            TECPLOT_ASCII|      1000|
|         SURFACE_PARAVIEW|      1000|
+------------------------------------+
Writing the convergence history file every 1 inner iterations.
Writing the screen convergence history every 50 inner iterations.
The tabular file format is CSV (.csv).
Convergence history file name: history_2nd.
Forces breakdown file name: forces_breakdown.dat.
Surface file name: surface_flow.
Volume file name: flow.
Restart file name: solution.dat.

------------- Config File Boundary Information ( Zone 0 ) ---------------
+-----------------------------------------------------------------------+
|                        Marker Type|                        Marker Name|
+-----------------------------------------------------------------------+
|                         Euler wall|                                  2|
|                                   |                                  3|
+-----------------------------------------------------------------------+
|                          Far-field|                                  4|
+-----------------------------------------------------------------------+
|                     Symmetry plane|                                  6|
+-----------------------------------------------------------------------+
|                   Riemann boundary|                                  1|
|                                   |                                  5|
+-----------------------------------------------------------------------+

-------------------- Output Preprocessing ( Zone 0 ) --------------------

WARNING: SURFACE_PRESSURE_DROP can only be computed for at least 2 surfaces (outlet, inlet, ...)

Screen output fields: INNER_ITER, RMS_DENSITY, NONPHYSICAL_POINTS
History output group(s): ITER, RMS_RES
Ignoring Convergence Field(s): RESIDUAL 
Warning: No (valid) fields chosen for convergence monitoring. Convergence monitoring inactive.
Warning: No (valid) fields chosen for time convergence monitoring. Time convergence monitoring inactive.
Volume output fields: COORDINATES, SOLUTION, PRIMITIVE

------------------- Geometry Preprocessing ( Zone 0 ) -------------------
Two dimensional problem.
5186 grid points before partitioning.
9941 volume elements before partitioning.
6 surface markers.
12 boundary elements in index 0 (Marker = 1).
41 boundary elements in index 1 (Marker = 2).
57 boundary elements in index 2 (Marker = 3).
90 boundary elements in index 3 (Marker = 4).
17 boundary elements in index 4 (Marker = 5).
144 boundary elements in index 5 (Marker = 6).
Executing the partitioning functions.
Building the graph adjacency structure.
Calling ParMETIS... graph partitioning complete (387 edge cuts).
Distributing ParMETIS coloring.
Rebalancing vertices.
Rebalancing volume element connectivity.
Rebalancing markers and surface elements.
5584 vertices including ghost points. 
10324 interior elements including halo cells. 
10255 triangles.
69 quadrilaterals.
Establishing MPI communication patterns.
Setting point connectivity.
Renumbering points (Reverse Cuthill McKee Ordering).
Recomputing point connectivity.
Setting element connectivity.
Checking the numerical grid orientation.
All volume elements are correctly orientend.
There has been a re-orientation of 372 LINE surface elements.
Identifying edges and vertices.
Setting the control volume structure.
Area of the computational grid: 1133.06.
Searching for the closest normal neighbors to the surfaces.
Storing a mapping from global to local point index.
Compute the surface curvature.
Max K: 26.0332. Mean K: 0.233349. Standard deviation K: 1.96796.
Checking for periodicity.
Computing mesh quality statistics for the dual control volumes.
+--------------------------------------------------------------+
|           Mesh Quality Metric|        Minimum|        Maximum|
+--------------------------------------------------------------+
|    Orthogonality Angle (deg.)|        46.5167|             90|
|     CV Face Area Aspect Ratio|         1.0008|        9.57495|
|           CV Sub-Volume Ratio|              1|        9.32018|
+--------------------------------------------------------------+
Finding max control volume width.
Communicating number of neighbors.
Wetted area = 0 m^2.
Area projection in the x-plane = 0 m, y-plane = 0 m.
Max. coordinate in the x-direction = -1e+10 m, y-direction = -1e+10 m.
Min. coordinate in the x-direction = 1e+10 m, y-direction = 1e+10 m.
Checking if Euler & Symmetry markers are straight/plane:
Boundary marker 2 is NOT a single straight.
Boundary marker 3 is a single straight.
Boundary marker 6 is a single straight.
Computing wall distances.

-------------------- Solver Preprocessing ( Zone 0 ) --------------------
Inviscid flow: Computing density based on free-stream
temperature and pressure using the ideal gas law.
Force coefficients computed using free-stream values.

-- Models:
+------------------------------------------------------------------------------+
|          Viscosity Model|        Conductivity Model|              Fluid Model|
+------------------------------------------------------------------------------+
|                        -|                         -|                IDEAL_GAS|
+------------------------------------------------------------------------------+
-- Fluid properties:
+------------------------------------------------------------------------------+
|                  Name|    Dim. value|    Ref. value|      Unit|Non-dim. value|
+------------------------------------------------------------------------------+
|          Gas Constant|           297|           297|  N.m/kg.K|             1|
|      Spec. Heat Ratio|             -|             -|         -|           1.4|
+------------------------------------------------------------------------------+
-- Initial and free-stream conditions:
+------------------------------------------------------------------------------+
|                  Name|    Dim. value|    Ref. value|      Unit|Non-dim. value|
+------------------------------------------------------------------------------+
|       Static Pressure|        100430|        100430|        Pa|             1|
|               Density|       1.12716|       1.12716|    kg/m^3|             1|
|           Temperature|           300|           300|         K|             1|
|          Total Energy|        222750|         89100|   m^2/s^2|           2.5|
|            Velocity-X|   3.53186e-07|       298.496|       m/s|   1.18322e-09|
|            Velocity-Y|             0|       298.496|       m/s|             0|
|    Velocity Magnitude|   3.53186e-07|       298.496|       m/s|   1.18322e-09|
+------------------------------------------------------------------------------+
|           Mach Number|             -|             -|         -|         1e-09|
+------------------------------------------------------------------------------+
Initialize Jacobian structure (Euler). MG level: 0.

The number of points in the restart file (4716) does not match the mesh (5186).
A recursive nearest neighbor interpolation will be performed.
Number of recursions: 1.
Elapsed time: 0.00409583s.


------------------- Numerics Preprocessing ( Zone 0 ) -------------------

----------------- Integration Preprocessing ( Zone 0 ) ------------------

------------------- Iteration Preprocessing ( Zone 0 ) ------------------
Euler/Navier-Stokes/RANS fluid iteration.

------------------------------ Begin Solver -----------------------------

Simulation Run using the Single-zone Driver
WARNING: SU2 was not compiled for an AVX-capable architecture. Performance could be better,
         see https://su2code.github.io/docs_v7/Build-SU2-Linux-MacOS/#compiler-optimizations
+--------------------------------------+
|  Inner_Iter|    rms[Rho]|Nonphysical_|
+--------------------------------------+
|           0|   -2.202516|           1|
|          50|   -2.945105|           1|
|         100|   -3.072283|           1|
|         150|   -3.145495|           1|
|         200|   -3.254177|           1|
|         250|   -3.255175|           1|
|         300|   -3.161915|           1|
|         350|   -3.263184|           1|
|         400|   -3.248557|           1|
|         450|   -3.177202|           1|
|         500|   -3.163595|           1|
|         550|   -3.254710|           1|
|         600|   -3.162211|           1|
|         650|   -3.259123|           1|
|         700|   -3.259750|           1|
|         750|   -3.199032|           1|
|         800|   -3.165616|           1|
|         850|   -3.263750|           1|
|         900|   -3.160999|           1|
|         950|   -3.264594|           1|
|        1000|   -3.172380|           1|
+-----------------------------------------------------------------------+
|        File Writing Summary       |              Filename             |
+-----------------------------------------------------------------------+
|SU2 binary restart                 |solution.dat                       |
|SU2 ASCII restart                  |solution.csv                       |
|Paraview                           |flow.vtu                           |
|Tecplot ASCII                      |flow.dat                           |
|Paraview surface                   |surface_flow.vtu                   |
+-----------------------------------------------------------------------+
+--------------------------------------+
|  Inner_Iter|    rms[Rho]|Nonphysical_|
+--------------------------------------+
|        1050|   -3.266682|           1|
|        1100|   -3.178748|           1|
|        1150|   -3.160957|           1|
|        1200|   -3.259371|           1|
|        1250|   -3.164960|           1|
|        1300|   -3.176441|           1|
|        1350|   -3.259002|           1|
|        1400|   -3.155652|           1|
|        1450|   -3.262207|           1|
|        1500|   -3.158420|           1|
|        1550|   -3.265276|           1|
|        1600|   -3.261521|           1|
|        1650|   -3.174599|           1|
|        1700|   -3.171797|           1|
|        1750|   -3.205780|           1|
|        1800|   -3.258928|           1|
|        1850|   -3.264692|           1|
|        1900|   -3.268576|           1|
|        1950|   -3.268300|           1|
|        2000|   -3.269420|           1|
+-----------------------------------------------------------------------+
|        File Writing Summary       |              Filename             |
+-----------------------------------------------------------------------+
|SU2 binary restart                 |solution.dat                       |
|SU2 ASCII restart                  |solution.csv                       |
|Paraview                           |flow.vtu                           |
|Tecplot ASCII                      |flow.dat                           |
|Paraview surface                   |surface_flow.vtu                   |
+-----------------------------------------------------------------------+
+--------------------------------------+
|  Inner_Iter|    rms[Rho]|Nonphysical_|
+--------------------------------------+
|        2050|   -3.173898|           1|
|        2100|   -3.254405|           1|
|        2150|   -3.259059|           1|
|        2200|   -3.252278|           1|
|        2250|   -3.260631|           1|
|        2300|   -3.168427|           1|
|        2350|   -3.264348|           1|
|        2400|   -3.178546|           1|
|        2450|   -3.270571|           1|
|        2500|   -3.166421|           1|
|        2550|   -3.211758|           1|
|        2600|   -3.262414|           1|
|        2650|   -3.252815|           1|
|        2700|   -3.178478|           1|
|        2750|   -3.170450|           1|
|        2800|   -3.263927|           1|
|        2850|   -3.208663|           1|
|        2900|   -3.177946|           1|
|        2950|   -3.179971|           1|
|        2999|   -3.262688|           1|

----------------------------- Solver Exit -------------------------------

Maximum number of iterations reached (ITER = 3000) before convergence.
+-----------------------------------------------------------------------+
|      Convergence Field     |     Value    |   Criterion  |  Converged |
+-----------------------------------------------------------------------+
+-----------------------------------------------------------------------+
-------------------------------------------------------------------------
+-----------------------------------------------------------------------+
|        File Writing Summary       |              Filename             |
+-----------------------------------------------------------------------+
|SU2 binary restart                 |solution.dat                       |
|SU2 ASCII restart                  |solution.csv                       |
|Paraview                           |flow.vtu                           |
|Tecplot ASCII                      |flow.dat                           |
|Paraview surface                   |surface_flow.vtu                   |
+-----------------------------------------------------------------------+
Warning: there are 1 non-physical points in the solution.

------------------------- Solver Postprocessing -------------------------
Deleted CNumerics container.
Deleted CIntegration container.
Deleted CSolver container.
Deleted CIteration container.
Deleted CInterface container.
Deleted CGeometry container.
Deleted CFreeFormDefBox class.
Deleted CSurfaceMovement class.
Deleted CVolumetricMovement class.
Deleted CConfig container.
Deleted nInst container.
Deleted COutput class.
-------------------------------------------------------------------------

------------------------- Exit Success (SU2_CFD) ------------------------



=======================================================================
=======================================================================
                       PREPROCESSING - LEVEL 3
 
  -------------------------------------------------------------------
    NODE-PAIR CODE   -   PREPROCESSING PHASE
  -------------------------------------------------------------------
    Department of Aerospace Engineering - Politecnico di Milano
    authors: Alberto Guardone, Marco Fossati
 
    Warning: Check the status of file CORNERS.grid_name
 
 
    Domain nodes:         5186
    Boundary nodes:          722
    Domain elements:         9941
    Boundary elements:          361
 
    Generating node-pairs...
    I have found        15262  node-pairs in the domain
    I have found          361  node-pairs in the boundary
 
    Generating metric quantities...
    Domain finite element metrics...
    Domain finite volumes metrics...
    Boundary metrics...
 
    Checking metric consistency...
      FEM maximum eta residual on DOMAIN points --->  4.5675310755773689E-30
      - on domain node           58
      - of coordinates   0.100000000000000        3.56048430000000     
      FEM maximum eta residual on BOUNDARY points --->  1.0716306592933286E-29
      - on boundary node          186    (domain            54 )
      - of coordinates   0.000000000000000E+000   16.2500000000000     
 
      Domain area (cell) =   1089.80009281647     
      Domain area (mass,mass_ii) =   1089.80009281648     
      Boundary closure (xi) =  2.671742683713856E-014
      Boundary closure (chi) =  6.029096264811558E-015
 
      FVM maximum eta residual on DOMAIN points --->  5.1396262607298427E-32
      - on domain node         2538
      - of coordinates   0.293171286000000       0.862232368000000     
      FVM maximum eta residual on BOUNDARY points --->  5.8679310487298963E-28
      - on boundary node          645    (domain          3436 )
      - of coordinates    11.8449987000000       0.000000000000000E+000
 
    done
 
    Generating rotation matrices...
    done
 
    Saving...
    node-pairs...
    metric quantities...
    done
 
    Elapsed time   0.4252E+00 s
 


=======================================================================
=======================================================================
                     MESH ADAPTATION - LEVEL 3
 
  -------------------------------------------------------------------
    DARWIN
  -------------------------------------------------------------------
    CFD Laboratory - McGill University
    2009-2012 - Marco Fossati
    Department of Aerospace Engineering - Politecnico di Milano
    2003-2009 - Alberto Guardone, Marco Fossati
 
    Reading grid 2 ...
    Reading SU2 solution
    - equations:  Euler
    - thermodynamics:  not used
 
    Adapt grid from level 2 to level 3
    Averaging error...
    Quality enforcement...
    - edges marked for quality enforcement:       49
 
    Grid 1 nodes     4716 element     9005
    Grid 2 nodes     5186 element     9941
    Grid 3 nodes     5588 element    10745
 
    Postprocessing
    - errors.INL.plt
    - admesh.INL.plt
    - admesh.INL.su2
 


=======================================================================
=======================================================================
                            SU2 - LEVEL 3



MPI - REPORT BINDINGS:

-------------------------------------------------------------------------
|    ___ _   _ ___                                                      |
|   / __| | | |_  )   Release 7.5.1 "Blackbird"                         |
|   \__ \ |_| |/ /                                                      |
|   |___/\___//___|   Suite (Computational Fluid Dynamics Code)         |
|                                                                       |
-------------------------------------------------------------------------
| SU2 Project Website: https://su2code.github.io                        |
|                                                                       |
| The SU2 Project is maintained by the SU2 Foundation                   |
| (http://su2foundation.org)                                            |
-------------------------------------------------------------------------
| Copyright 2012-2023, SU2 Contributors                                 |
|                                                                       |
| SU2 is free software; you can redistribute it and/or                  |
| modify it under the terms of the GNU Lesser General Public            |
| License as published by the Free Software Foundation; either          |
| version 2.1 of the License, or (at your option) any later version.    |
|                                                                       |
| SU2 is distributed in the hope that it will be useful,                |
| but WITHOUT ANY WARRANTY; without even the implied warranty of        |
| MERCHANTABILITY or FITNESS FOR A PARTICULAR PURPOSE. See the GNU      |
| Lesser General Public License for more details.                       |
|                                                                       |
| You should have received a copy of the GNU Lesser General Public      |
| License along with SU2. If not, see <http://www.gnu.org/licenses/>.   |
-------------------------------------------------------------------------

Parsing config file for zone 0

----------------- Physical Case Definition ( Zone 0 ) -------------------
Compressible Euler equations.
Mach number: 1e-09.
Angle of attack (AoA): 0 deg, and angle of sideslip (AoS): 0 deg.
Reading and writing binary SU2 native restart files.
Read flow solution from: solution_interpolated.dat.
Non-Dimensional simulation (P=1.0, Rho=1.0, T=1.0 at the farfield).
The reference area is 1 m^2.
The semi-span will be computed using the max y(3D) value.
The reference length is 1 m.
Reference origin for moment evaluation is (0, 0, 0).
Surface(s) where the force coefficients are evaluated: 4.

Surface(s) plotted in the output file: 4.
Surface(s) to be analyzed in detail: 4.
Input mesh file name: admesh.INL.su2

--------------- Space Numerical Integration ( Zone 0 ) ------------------
Roe (with entropy fix = 1) solver for the flow inviscid terms.
Standard Roe without low-dissipation function.
Second order integration in space, with slope limiter.
Venkatakrishnan slope-limiting method, with constant: 0.0001.
The reference element size is: 1. 
Gradient for upwind reconstruction: unweighted Least-Squares.
Gradient for viscous and source terms: Green-Gauss.

--------------- Time Numerical Integration  ( Zone 0 ) ------------------
Local time stepping (steady state simulation).
Euler implicit method for the flow equations.
FGMRES is used for solving the linear system.
Using a ILU(0) preconditioning.
Convergence criteria of the linear solver: 1e-06.
Max number of linear iterations: 20.
CFL adaptation. Factor down: 0.5, factor up: 1.25,
                lower limit: 0.1, upper limit: 10,
                acceptable linear residual: 0.001.
Courant-Friedrichs-Lewy number:        1

------------------ Convergence Criteria  ( Zone 0 ) ---------------------
Maximum number of solver subiterations: 3000.
Begin convergence monitoring at iteration 10.
Residual minimum value: 1e-20.
Cauchy series min. value: 1e-10.
Number of Cauchy elements: 100.
Begin windowed time average at iteration 0.

-------------------- Output Information ( Zone 0 ) ----------------------
File writing frequency: 
+------------------------------------+
|                     File| Frequency|
+------------------------------------+
|                  RESTART|      1000|
|            RESTART_ASCII|      1000|
|                 PARAVIEW|      1000|
|            TECPLOT_ASCII|      1000|
|         SURFACE_PARAVIEW|      1000|
+------------------------------------+
Writing the convergence history file every 1 inner iterations.
Writing the screen convergence history every 50 inner iterations.
The tabular file format is CSV (.csv).
Convergence history file name: history_2nd.
Forces breakdown file name: forces_breakdown.dat.
Surface file name: surface_flow.
Volume file name: flow.
Restart file name: solution.dat.

------------- Config File Boundary Information ( Zone 0 ) ---------------
+-----------------------------------------------------------------------+
|                        Marker Type|                        Marker Name|
+-----------------------------------------------------------------------+
|                         Euler wall|                                  2|
|                                   |                                  3|
+-----------------------------------------------------------------------+
|                          Far-field|                                  4|
+-----------------------------------------------------------------------+
|                     Symmetry plane|                                  6|
+-----------------------------------------------------------------------+
|                   Riemann boundary|                                  1|
|                                   |                                  5|
+-----------------------------------------------------------------------+

-------------------- Output Preprocessing ( Zone 0 ) --------------------

WARNING: SURFACE_PRESSURE_DROP can only be computed for at least 2 surfaces (outlet, inlet, ...)

Screen output fields: INNER_ITER, RMS_DENSITY, NONPHYSICAL_POINTS
History output group(s): ITER, RMS_RES
Ignoring Convergence Field(s): RESIDUAL 
Warning: No (valid) fields chosen for convergence monitoring. Convergence monitoring inactive.
Warning: No (valid) fields chosen for time convergence monitoring. Time convergence monitoring inactive.
Volume output fields: COORDINATES, SOLUTION, PRIMITIVE

------------------- Geometry Preprocessing ( Zone 0 ) -------------------
Two dimensional problem.
5588 grid points before partitioning.
10745 volume elements before partitioning.
6 surface markers.
12 boundary elements in index 0 (Marker = 1).
41 boundary elements in index 1 (Marker = 2).
57 boundary elements in index 2 (Marker = 3).
90 boundary elements in index 3 (Marker = 4).
17 boundary elements in index 4 (Marker = 5).
144 boundary elements in index 5 (Marker = 6).
Executing the partitioning functions.
Building the graph adjacency structure.
Calling ParMETIS... graph partitioning complete (419 edge cuts).
Distributing ParMETIS coloring.
Rebalancing vertices.
Rebalancing volume element connectivity.
Rebalancing markers and surface elements.
6020 vertices including ghost points. 
11161 interior elements including halo cells. 
11091 triangles.
70 quadrilaterals.
Establishing MPI communication patterns.
Setting point connectivity.
Renumbering points (Reverse Cuthill McKee Ordering).
Recomputing point connectivity.
Setting element connectivity.
Checking the numerical grid orientation.
All volume elements are correctly orientend.
There has been a re-orientation of 371 LINE surface elements.
Identifying edges and vertices.
Setting the control volume structure.
Area of the computational grid: 1129.75.
Searching for the closest normal neighbors to the surfaces.
Storing a mapping from global to local point index.
Compute the surface curvature.
Max K: 26.0332. Mean K: 0.233349. Standard deviation K: 1.96796.
Checking for periodicity.
Computing mesh quality statistics for the dual control volumes.
+--------------------------------------------------------------+
|           Mesh Quality Metric|        Minimum|        Maximum|
+--------------------------------------------------------------+
|    Orthogonality Angle (deg.)|        42.1875|             90|
|     CV Face Area Aspect Ratio|        1.00148|        13.0376|
|           CV Sub-Volume Ratio|              1|        17.8253|
+--------------------------------------------------------------+
Finding max control volume width.
Communicating number of neighbors.
Wetted area = 0 m^2.
Area projection in the x-plane = 0 m, y-plane = 0 m.
Max. coordinate in the x-direction = -1e+10 m, y-direction = -1e+10 m.
Min. coordinate in the x-direction = 1e+10 m, y-direction = 1e+10 m.
Checking if Euler & Symmetry markers are straight/plane:
Boundary marker 2 is NOT a single straight.
Boundary marker 3 is a single straight.
Boundary marker 6 is a single straight.
Computing wall distances.

-------------------- Solver Preprocessing ( Zone 0 ) --------------------
Inviscid flow: Computing density based on free-stream
temperature and pressure using the ideal gas law.
Force coefficients computed using free-stream values.

-- Models:
+------------------------------------------------------------------------------+
|          Viscosity Model|        Conductivity Model|              Fluid Model|
+------------------------------------------------------------------------------+
|                        -|                         -|                IDEAL_GAS|
+------------------------------------------------------------------------------+
-- Fluid properties:
+------------------------------------------------------------------------------+
|                  Name|    Dim. value|    Ref. value|      Unit|Non-dim. value|
+------------------------------------------------------------------------------+
|          Gas Constant|           297|           297|  N.m/kg.K|             1|
|      Spec. Heat Ratio|             -|             -|         -|           1.4|
+------------------------------------------------------------------------------+
-- Initial and free-stream conditions:
+------------------------------------------------------------------------------+
|                  Name|    Dim. value|    Ref. value|      Unit|Non-dim. value|
+------------------------------------------------------------------------------+
|       Static Pressure|        100430|        100430|        Pa|             1|
|               Density|       1.12716|       1.12716|    kg/m^3|             1|
|           Temperature|           300|           300|         K|             1|
|          Total Energy|        222750|         89100|   m^2/s^2|           2.5|
|            Velocity-X|   3.53186e-07|       298.496|       m/s|   1.18322e-09|
|            Velocity-Y|             0|       298.496|       m/s|             0|
|    Velocity Magnitude|   3.53186e-07|       298.496|       m/s|   1.18322e-09|
+------------------------------------------------------------------------------+
|           Mach Number|             -|             -|         -|         1e-09|
+------------------------------------------------------------------------------+
Initialize Jacobian structure (Euler). MG level: 0.

The number of points in the restart file (5186) does not match the mesh (5588).
A recursive nearest neighbor interpolation will be performed.
Number of recursions: 1.
Elapsed time: 0.00386363s.


------------------- Numerics Preprocessing ( Zone 0 ) -------------------

----------------- Integration Preprocessing ( Zone 0 ) ------------------

------------------- Iteration Preprocessing ( Zone 0 ) ------------------
Euler/Navier-Stokes/RANS fluid iteration.

------------------------------ Begin Solver -----------------------------

Simulation Run using the Single-zone Driver
WARNING: SU2 was not compiled for an AVX-capable architecture. Performance could be better,
         see https://su2code.github.io/docs_v7/Build-SU2-Linux-MacOS/#compiler-optimizations
+--------------------------------------+
|  Inner_Iter|    rms[Rho]|Nonphysical_|
+--------------------------------------+
|           0|   -2.402570|           1|
|          50|   -3.073241|           1|
|         100|   -3.101552|           1|
|         150|   -3.226711|           1|
|         200|   -3.240966|           1|
|         250|   -3.268793|           1|
|         300|   -3.257778|           1|
|         350|   -3.077379|           1|
|         400|   -3.272670|           1|
|         450|   -3.260600|           1|
|         500|   -3.109815|           1|
|         550|   -3.271590|           1|
|         600|   -3.239424|           1|
|         650|   -3.108413|           1|
|         700|   -3.118701|           1|
|         750|   -3.160184|           1|
|         800|   -3.278689|           1|
|         850|   -3.277676|           1|
|         900|   -3.279117|           1|
|         950|   -3.279429|           1|
|        1000|   -3.277585|           1|
+-----------------------------------------------------------------------+
|        File Writing Summary       |              Filename             |
+-----------------------------------------------------------------------+
|SU2 binary restart                 |solution.dat                       |
|SU2 ASCII restart                  |solution.csv                       |
|Paraview                           |flow.vtu                           |
|Tecplot ASCII                      |flow.dat                           |
|Paraview surface                   |surface_flow.vtu                   |
+-----------------------------------------------------------------------+
+--------------------------------------+
|  Inner_Iter|    rms[Rho]|Nonphysical_|
+--------------------------------------+
|        1050|   -3.165344|           1|
|        1100|   -3.272906|           1|
|        1150|   -3.163189|           1|
|        1200|   -3.268201|           1|
|        1250|   -3.101179|           1|
|        1300|   -3.272901|           1|
|        1350|   -3.257657|           1|
|        1400|   -3.274261|           1|
|        1450|   -3.253216|           1|
|        1500|   -3.116869|           1|
|        1550|   -3.162130|           1|
|        1600|   -3.178239|           1|
|        1650|   -3.275948|           1|
|        1700|   -3.276288|           1|
|        1750|   -3.225231|           1|
|        1800|   -3.106398|           1|
|        1850|   -3.278143|           1|
|        1900|   -3.217524|           1|
|        1950|   -3.274684|           1|
|        2000|   -3.106723|           1|
+-----------------------------------------------------------------------+
|        File Writing Summary       |              Filename             |
+-----------------------------------------------------------------------+
|SU2 binary restart                 |solution.dat                       |
|SU2 ASCII restart                  |solution.csv                       |
|Paraview                           |flow.vtu                           |
|Tecplot ASCII                      |flow.dat                           |
|Paraview surface                   |surface_flow.vtu                   |
+-----------------------------------------------------------------------+
+--------------------------------------+
|  Inner_Iter|    rms[Rho]|Nonphysical_|
+--------------------------------------+
|        2050|   -3.111363|           1|
|        2100|   -3.243756|           1|
|        2150|   -3.104125|           1|
|        2200|   -3.276229|           1|
|        2250|   -3.228128|           1|
|        2300|   -3.256805|           1|
|        2350|   -3.277962|           1|
|        2400|   -3.277015|           1|
[...]
      - on boundary node          725    (domain          5812 )
      - of coordinates    11.4503382000000       0.000000000000000E+000
 
    done
 
    Generating rotation matrices...
    done
 
    Saving...
    node-pairs...
    metric quantities...
    done
 
    Elapsed time   0.4467E+00 s
 


=======================================================================
=======================================================================
                     MESH ADAPTATION - LEVEL 10
 
  -------------------------------------------------------------------
    DARWIN
  -------------------------------------------------------------------
    CFD Laboratory - McGill University
    2009-2012 - Marco Fossati
    Department of Aerospace Engineering - Politecnico di Milano
    2003-2009 - Alberto Guardone, Marco Fossati
 
    Reading grid 9 ...
    Reading SU2 solution
    - equations:  Euler
    - thermodynamics:  not used
 
    Adapt grid from level 9 to level *
    Averaging error...
    Quality enforcement...
    - edges marked for quality enforcement:        1
 
    Grid 1 nodes     4716 element     9005
    Grid 2 nodes     5186 element     9941
    Grid 3 nodes     5588 element    10745
    Grid 4 nodes     5809 element    11187
    Grid 5 nodes     5985 element    11537
    Grid 6 nodes     6122 element    11810
    Grid 7 nodes     6240 element    12044
    Grid 8 nodes     6291 element    12146
    Grid 9 nodes     6323 element    12210
    Grid * nodes     6341 element    12246
 
    Postprocessing
    - errors.INL.plt
    - admesh.INL.plt
    - admesh.INL.su2
 


=======================================================================
=======================================================================
                            SU2 - LEVEL 10



MPI - REPORT BINDINGS:

-------------------------------------------------------------------------
|    ___ _   _ ___                                                      |
|   / __| | | |_  )   Release 7.5.1 "Blackbird"                         |
|   \__ \ |_| |/ /                                                      |
|   |___/\___//___|   Suite (Computational Fluid Dynamics Code)         |
|                                                                       |
-------------------------------------------------------------------------
| SU2 Project Website: https://su2code.github.io                        |
|                                                                       |
| The SU2 Project is maintained by the SU2 Foundation                   |
| (http://su2foundation.org)                                            |
-------------------------------------------------------------------------
| Copyright 2012-2023, SU2 Contributors                                 |
|                                                                       |
| SU2 is free software; you can redistribute it and/or                  |
| modify it under the terms of the GNU Lesser General Public            |
| License as published by the Free Software Foundation; either          |
| version 2.1 of the License, or (at your option) any later version.    |
|                                                                       |
| SU2 is distributed in the hope that it will be useful,                |
| but WITHOUT ANY WARRANTY; without even the implied warranty of        |
| MERCHANTABILITY or FITNESS FOR A PARTICULAR PURPOSE. See the GNU      |
| Lesser General Public License for more details.                       |
|                                                                       |
| You should have received a copy of the GNU Lesser General Public      |
| License along with SU2. If not, see <http://www.gnu.org/licenses/>.   |
-------------------------------------------------------------------------

Parsing config file for zone 0

----------------- Physical Case Definition ( Zone 0 ) -------------------
Compressible Euler equations.
Mach number: 1e-09.
Angle of attack (AoA): 0 deg, and angle of sideslip (AoS): 0 deg.
Reading and writing binary SU2 native restart files.
Read flow solution from: solution_interpolated.dat.
Non-Dimensional simulation (P=1.0, Rho=1.0, T=1.0 at the farfield).
The reference area is 1 m^2.
The semi-span will be computed using the max y(3D) value.
The reference length is 1 m.
Reference origin for moment evaluation is (0, 0, 0).
Surface(s) where the force coefficients are evaluated: 4.

Surface(s) plotted in the output file: 4.
Surface(s) to be analyzed in detail: 4.
Input mesh file name: admesh.INL.su2

--------------- Space Numerical Integration ( Zone 0 ) ------------------
Roe (with entropy fix = 1) solver for the flow inviscid terms.
Standard Roe without low-dissipation function.
Second order integration in space, with slope limiter.
Venkatakrishnan slope-limiting method, with constant: 0.0001.
The reference element size is: 1. 
Gradient for upwind reconstruction: unweighted Least-Squares.
Gradient for viscous and source terms: Green-Gauss.

--------------- Time Numerical Integration  ( Zone 0 ) ------------------
Local time stepping (steady state simulation).
Euler implicit method for the flow equations.
FGMRES is used for solving the linear system.
Using a ILU(0) preconditioning.
Convergence criteria of the linear solver: 1e-06.
Max number of linear iterations: 20.
CFL adaptation. Factor down: 0.5, factor up: 1.25,
                lower limit: 0.1, upper limit: 10,
                acceptable linear residual: 0.001.
Courant-Friedrichs-Lewy number:        1

------------------ Convergence Criteria  ( Zone 0 ) ---------------------
Maximum number of solver subiterations: 3000.
Begin convergence monitoring at iteration 10.
Residual minimum value: 1e-20.
Cauchy series min. value: 1e-10.
Number of Cauchy elements: 100.
Begin windowed time average at iteration 0.

-------------------- Output Information ( Zone 0 ) ----------------------
File writing frequency: 
+------------------------------------+
|                     File| Frequency|
+------------------------------------+
|                  RESTART|      1000|
|            RESTART_ASCII|      1000|
|                 PARAVIEW|      1000|
|            TECPLOT_ASCII|      1000|
|         SURFACE_PARAVIEW|      1000|
+------------------------------------+
Writing the convergence history file every 1 inner iterations.
Writing the screen convergence history every 50 inner iterations.
The tabular file format is CSV (.csv).
Convergence history file name: history_2nd.
Forces breakdown file name: forces_breakdown.dat.
Surface file name: surface_flow.
Volume file name: flow.
Restart file name: solution.dat.

------------- Config File Boundary Information ( Zone 0 ) ---------------
+-----------------------------------------------------------------------+
|                        Marker Type|                        Marker Name|
+-----------------------------------------------------------------------+
|                         Euler wall|                                  2|
|                                   |                                  3|
+-----------------------------------------------------------------------+
|                          Far-field|                                  4|
+-----------------------------------------------------------------------+
|                     Symmetry plane|                                  6|
+-----------------------------------------------------------------------+
|                   Riemann boundary|                                  1|
|                                   |                                  5|
+-----------------------------------------------------------------------+

-------------------- Output Preprocessing ( Zone 0 ) --------------------

WARNING: SURFACE_PRESSURE_DROP can only be computed for at least 2 surfaces (outlet, inlet, ...)

Screen output fields: INNER_ITER, RMS_DENSITY, NONPHYSICAL_POINTS
History output group(s): ITER, RMS_RES
Ignoring Convergence Field(s): RESIDUAL 
Warning: No (valid) fields chosen for convergence monitoring. Convergence monitoring inactive.
Warning: No (valid) fields chosen for time convergence monitoring. Time convergence monitoring inactive.
Volume output fields: COORDINATES, SOLUTION, PRIMITIVE

------------------- Geometry Preprocessing ( Zone 0 ) -------------------
Two dimensional problem.
6341 grid points before partitioning.
12246 volume elements before partitioning.
6 surface markers.
12 boundary elements in index 0 (Marker = 1).
41 boundary elements in index 1 (Marker = 2).
57 boundary elements in index 2 (Marker = 3).
90 boundary elements in index 3 (Marker = 4).
17 boundary elements in index 4 (Marker = 5).
149 boundary elements in index 5 (Marker = 6).
Executing the partitioning functions.
Building the graph adjacency structure.
Calling ParMETIS... graph partitioning complete (429 edge cuts).
Distributing ParMETIS coloring.
Rebalancing vertices.
Rebalancing volume element connectivity.
Rebalancing markers and surface elements.
6784 vertices including ghost points. 
12672 interior elements including halo cells. 
12601 triangles.
71 quadrilaterals.
Establishing MPI communication patterns.
Setting point connectivity.
Renumbering points (Reverse Cuthill McKee Ordering).
Recomputing point connectivity.
Setting element connectivity.
Checking the numerical grid orientation.
All volume elements are correctly orientend.
There has been a re-orientation of 376 LINE surface elements.
Identifying edges and vertices.
Setting the control volume structure.
Area of the computational grid: 1125.46.
Searching for the closest normal neighbors to the surfaces.
Storing a mapping from global to local point index.
Compute the surface curvature.
Max K: 26.0332. Mean K: 0.230212. Standard deviation K: 1.95487.
Checking for periodicity.
Computing mesh quality statistics for the dual control volumes.
+--------------------------------------------------------------+
|           Mesh Quality Metric|        Minimum|        Maximum|
+--------------------------------------------------------------+
|    Orthogonality Angle (deg.)|        30.3587|             90|
|     CV Face Area Aspect Ratio|        1.00022|        11.6778|
|           CV Sub-Volume Ratio|              1|        31.7004|
+--------------------------------------------------------------+
Finding max control volume width.
Communicating number of neighbors.
Wetted area = 0 m^2.
Area projection in the x-plane = 0 m, y-plane = 0 m.
Max. coordinate in the x-direction = -1e+10 m, y-direction = -1e+10 m.
Min. coordinate in the x-direction = 1e+10 m, y-direction = 1e+10 m.
Checking if Euler & Symmetry markers are straight/plane:
Boundary marker 2 is NOT a single straight.
Boundary marker 3 is a single straight.
Boundary marker 6 is a single straight.
Computing wall distances.

-------------------- Solver Preprocessing ( Zone 0 ) --------------------
Inviscid flow: Computing density based on free-stream
temperature and pressure using the ideal gas law.
Force coefficients computed using free-stream values.

-- Models:
+------------------------------------------------------------------------------+
|          Viscosity Model|        Conductivity Model|              Fluid Model|
+------------------------------------------------------------------------------+
|                        -|                         -|                IDEAL_GAS|
+------------------------------------------------------------------------------+
-- Fluid properties:
+------------------------------------------------------------------------------+
|                  Name|    Dim. value|    Ref. value|      Unit|Non-dim. value|
+------------------------------------------------------------------------------+
|          Gas Constant|           297|           297|  N.m/kg.K|             1|
|      Spec. Heat Ratio|             -|             -|         -|           1.4|
+------------------------------------------------------------------------------+
-- Initial and free-stream conditions:
+------------------------------------------------------------------------------+
|                  Name|    Dim. value|    Ref. value|      Unit|Non-dim. value|
+------------------------------------------------------------------------------+
|       Static Pressure|        100430|        100430|        Pa|             1|
|               Density|       1.12716|       1.12716|    kg/m^3|             1|
|           Temperature|           300|           300|         K|             1|
|          Total Energy|        222750|         89100|   m^2/s^2|           2.5|
|            Velocity-X|   3.53186e-07|       298.496|       m/s|   1.18322e-09|
|            Velocity-Y|             0|       298.496|       m/s|             0|
|    Velocity Magnitude|   3.53186e-07|       298.496|       m/s|   1.18322e-09|
+------------------------------------------------------------------------------+
|           Mach Number|             -|             -|         -|         1e-09|
+------------------------------------------------------------------------------+
Initialize Jacobian structure (Euler). MG level: 0.

The number of points in the restart file (6323) does not match the mesh (6341).
A recursive nearest neighbor interpolation will be performed.
Number of recursions: 1.
Elapsed time: 0.00504475s.


------------------- Numerics Preprocessing ( Zone 0 ) -------------------

----------------- Integration Preprocessing ( Zone 0 ) ------------------

------------------- Iteration Preprocessing ( Zone 0 ) ------------------
Euler/Navier-Stokes/RANS fluid iteration.

------------------------------ Begin Solver -----------------------------

Simulation Run using the Single-zone Driver
WARNING: SU2 was not compiled for an AVX-capable architecture. Performance could be better,
         see https://su2code.github.io/docs_v7/Build-SU2-Linux-MacOS/#compiler-optimizations
+--------------------------------------+
|  Inner_Iter|    rms[Rho]|Nonphysical_|
+--------------------------------------+
|           0|   -3.068911|           2|
|          50|   -3.152197|           2|
|         100|   -3.159519|           2|
|         150|   -3.286014|           2|
|         200|   -3.155615|           2|
|         250|   -3.193897|           2|
|         300|   -3.152932|           2|
|         350|   -3.294468|           2|
|         400|   -3.217323|           2|
|         450|   -3.300399|           2|
|         500|   -3.303033|           2|
|         550|   -3.150596|           2|
|         600|   -3.206077|           2|
|         650|   -3.179363|           2|
|         700|   -3.302155|           2|
|         750|   -3.297840|           2|
|         800|   -3.301479|           2|
|         850|   -3.287730|           2|
|         900|   -3.157844|           2|
|         950|   -3.154688|           2|
|        1000|   -3.205155|           2|
+-----------------------------------------------------------------------+
|        File Writing Summary       |              Filename             |
+-----------------------------------------------------------------------+
|SU2 binary restart                 |solution.dat                       |
|SU2 ASCII restart                  |solution.csv                       |
|Paraview                           |flow.vtu                           |
|Tecplot ASCII                      |flow.dat                           |
|Paraview surface                   |surface_flow.vtu                   |
+-----------------------------------------------------------------------+
+--------------------------------------+
|  Inner_Iter|    rms[Rho]|Nonphysical_|
+--------------------------------------+
|        1050|   -3.196292|           2|
|        1100|   -3.292120|           2|
|        1150|   -3.299842|           2|
|        1200|   -3.286185|           2|
|        1250|   -3.241617|           2|
|        1300|   -3.144066|           2|
|        1350|   -3.266163|           2|
|        1400|   -3.204808|           2|
|        1450|   -3.303516|           2|
|        1500|   -3.296825|           2|
|        1550|   -3.298377|           2|
|        1600|   -3.204067|           2|
|        1650|   -3.191431|           2|
|        1700|   -3.221894|           2|
|        1750|   -3.155644|           2|
|        1800|   -3.251814|           2|
|        1850|   -3.280287|           2|
|        1900|   -3.301083|           2|
|        1950|   -3.152315|           2|
|        2000|   -3.297507|           2|
+-----------------------------------------------------------------------+
|        File Writing Summary       |              Filename             |
+-----------------------------------------------------------------------+
|SU2 binary restart                 |solution.dat                       |
|SU2 ASCII restart                  |solution.csv                       |
|Paraview                           |flow.vtu                           |
|Tecplot ASCII                      |flow.dat                           |
|Paraview surface                   |surface_flow.vtu                   |
+-----------------------------------------------------------------------+
+--------------------------------------+
|  Inner_Iter|    rms[Rho]|Nonphysical_|
+--------------------------------------+
|        2050|   -3.199368|           2|
|        2100|   -3.151595|           2|
|        2150|   -3.283678|           2|
|        2200|   -3.285044|           2|
|        2250|   -3.221090|           2|
|        2300|   -3.153557|           2|
|        2350|   -3.296977|           2|
|        2400|   -3.246566|           2|
|        2450|   -3.290889|           2|
|        2500|   -3.161927|           2|
|        2550|   -3.296054|           2|
|        2600|   -3.154936|           2|
|        2650|   -3.295823|           2|
|        2700|   -3.184522|           2|
|        2750|   -3.297379|           2|
|        2800|   -3.247894|           2|
|        2850|   -3.155794|           2|
|        2900|   -3.298758|           2|
|        2950|   -3.258388|           2|
|        2999|   -3.277594|           2|

----------------------------- Solver Exit -------------------------------

Maximum number of iterations reached (ITER = 3000) before convergence.
+-----------------------------------------------------------------------+
|      Convergence Field     |     Value    |   Criterion  |  Converged |
+-----------------------------------------------------------------------+
+-----------------------------------------------------------------------+
-------------------------------------------------------------------------
+-----------------------------------------------------------------------+
|        File Writing Summary       |              Filename             |
+-----------------------------------------------------------------------+
|SU2 binary restart                 |solution.dat                       |
|SU2 ASCII restart                  |solution.csv                       |
|Paraview                           |flow.vtu                           |
|Tecplot ASCII                      |flow.dat                           |
|Paraview surface                   |surface_flow.vtu                   |
+-----------------------------------------------------------------------+
Warning: there are 2 non-physical points in the solution.

------------------------- Solver Postprocessing -------------------------
Deleted CNumerics container.
Deleted CIntegration container.
Deleted CSolver container.
Deleted CIteration container.
Deleted CInterface container.
Deleted CGeometry container.
Deleted CFreeFormDefBox class.
Deleted CSurfaceMovement class.
Deleted CVolumetricMovement class.
Deleted CConfig container.
Deleted nInst container.
Deleted COutput class.
-------------------------------------------------------------------------

------------------------- Exit Success (SU2_CFD) ------------------------

mv: cannot stat 'history_2nd.csv': No such file or directory
